** written by FreeCAD inp file writer for CalculiX,Abaqus meshes
** highest dimension mesh elements only.

** Nodes
*Node, NSET=Nall
1, -5e-15, 5, 212
2, -5e-15, -5, 212
3, -2e-15, 5, 200
4, -2e-15, -5, 200
5, -5, -3, 180
6, -5, -3, 48
7, -5, 3, 180
8, -5, 3, 48
9, 5, -3, 180
10, 5, -3, 48
11, 5, 3, 180
12, 5, 3, 48
13, -7e-15, 5, 76
14, -7e-15, -5, 76
15, 10, 5, 209.3205080757
16, 17.32050807569, 5, 202
17, 20, 5, 192
18, 17.32050807569, 5, 182
19, 10, 5, 174.6794919243
20, -1.130139009627e-13, 5, 172
** ... 762 like lines cut


** Volume elements
*Element, TYPE=C3D10, ELSET=Evolumes
388, 41, 40, 16, 573, 52, 179, 177, 577, 576, 578
389, 41, 16, 17, 573, 177, 28, 178, 577, 578, 579
390, 353, 352, 196, 268, 383, 580, 581, 583, 582, 584
391, 352, 351, 202, 274, 386, 585, 586, 588, 587, 589
392, 201, 344, 273, 351, 592, 590, 591, 593, 389, 594
393, 203, 342, 354, 275, 596, 377, 595, 598, 597, 599
394, 200, 339, 340, 272, 601, 398, 600, 603, 602, 604
395, 346, 197, 198, 269, 606, 246, 605, 608, 607, 609
396, 274, 196, 352, 268, 610, 580, 588, 302, 584, 582
397, 198, 270, 346, 269, 612, 611, 605, 609, 318, 608
398, 196, 352, 202, 274, 580, 586, 230, 610, 588, 589
399, 342, 203, 278, 275, 596, 613, 614, 597, 598, 296
400, 204, 201, 273, 351, 236, 591, 615, 616, 593, 594
401, 276, 202, 351, 274, 618, 585, 617, 305, 589, 587
402, 272, 340, 198, 270, 604, 619, 620, 317, 621, 612
403, 278, 342, 206, 203, 614, 622, 623, 613, 596, 224
404, 276, 204, 273, 351, 624, 615, 308, 617, 616, 594
405, 351, 276, 204, 202, 617, 624, 616, 585, 618, 233
406, 200, 340, 198, 272, 600, 619, 245, 603, 604, 620
407, 198, 340, 346, 270, 619, 399, 605, 612, 621, 611
** ... 319 like lines cut

** Define element set Eall
*ELSET, ELSET=Eall
Evolumes



***********************************************************
** Element sets for materials and FEM element type (solid, shell, beam, fluid)
*ELSET,ELSET=FEMPart_MaterialSolid
Evolumes

** Physical constants for SI(mm) unit system with Kelvins
*PHYSICAL CONSTANTS, ABSOLUTE ZERO=0, STEFAN BOLTZMANN=5.670374419e-11

***********************************************************
** Materials
** see information about units at file end
** FreeCAD material name: CalculiX-Steel
** Material (FEMPart (LongPendulum001))
*MATERIAL, NAME=FEMPart_Material
*ELASTIC
210000,0.3
*DENSITY
7.9E-09
*EXPANSION, ZERO=0
1.2E-05

***********************************************************
** Sections
*SOLID SECTION, ELSET=FEMPart_MaterialSolid, MATERIAL=FEMPart_Material

***********************************************************
** At least one step is needed to run an CalculiX analysis of FreeCAD
*STEP, INC=2000
*STATIC
1.0,1.0,1e-05,1.0

***********************************************************
** Automatic 3-2-1 constraints
** nodeXYZ 167: x=-19.7989898732, y=-5, z=28.2010101268
** nodeYZ 164: x=19.7989898732, y=-5, z=28.2010101268
** nodeZ 140: x=19.7989898732, y=5, z=28.2010101268
*BOUNDARY
167,1,1,0
167,2,2,0
167,3,3,0
164,2,2,0
164,3,3,0
140,3,3,0

***********************************************************
** MbDPart D'Alembert element loads
*DLOAD
15,GRAV,0,1,0,0
16,GRAV,0,1,0,0
17,GRAV,0,1,0,0
18,GRAV,0,1,0,0
19,GRAV,0,1,0,0
20,GRAV,0,1,0,0
21,GRAV,0,1,0,0
22,GRAV,0,1,0,0
23,GRAV,0,1,0,0
24,GRAV,0,1,0,0
25,GRAV,0,1,0,0
26,GRAV,0,1,0,0
27,GRAV,0,1,0,0
28,GRAV,0,1,0,0
29,GRAV,0,1,0,0
30,GRAV,0,1,0,0
31,GRAV,0,1,0,0
32,GRAV,0,1,0,0
33,GRAV,0,1,0,0
34,GRAV,0,1,0,0
** ... 692 like lines cut

***********************************************************
** MbDAssembly gravity
*DLOAD
Eall,GRAV,9810,0,0,-1

***********************************************************
** Outputs --> frd file
*NODE FILE
U
*EL FILE
S, E
*OUTPUT, FREQUENCY=1
***********************************************************
*END STEP

***********************************************************
** CalculiX Input file
**   written by    --> FreeCAD 26.3.0
**   written on    --> Sat Sep  5 10:08:41 2026
**   file name     --> RealisticPendulum.FCStd
**   analysis name --> FEMPart
**
**
***********************************************************
**  About units:
**  See ccx manual, ccx does not know about any unit.
**  Golden rule: The user must make sure that the numbers they provide have consistent units.
**  The user is the FreeCAD calculix writer module ;-)
**
**  The unit system which is used at Guido Dhondt's company: mm, N, s, K
**  Since Length and Mass are connected by Force, if Length is mm the Mass is in t to get N
**  The following units are used to write to inp file:
**
**  Length: mm (this includes the mesh geometry)
**  Mass: t
**  TimeSpan: s
**  Temperature: K
**
**  This leads to:
**  Force: N
**  Pressure: N/mm^2 == MPa (Young's Modulus has unit Pressure)
**  Density: t/mm^3
**  Gravity: mm/s^2
**  Thermal conductivity: t*mm/K/s^3 == as W/m/K == kW/mm/K
**  Specific Heat: mm^2/s^2/K = J/kg/K == kJ/t/K
**
