** written by FreeCAD inp file writer for CalculiX,Abaqus meshes
** highest dimension mesh elements only.

** Nodes
*Node, NSET=Nall
1, -5e-15, 5, 212
2, -5e-15, -5, 212
3, -5, -3, 172.635083269
4, -5, 3, 172.635083269
5, 5, 3, 172.635083269
6, 5, -3, 172.635083269
7, -2e-15, -5, 200
8, -2e-15, 5, 200
9, -5, -3, 75.54995462791
10, -5, 3, 75.54995462791
11, 5, 3, 75.54995462791
12, -6.86e-15, 3, 76
13, 5, -3, 75.54995462791
14, -6.86e-15, -3, 76
15, -7e-15, 5, 76
16, -7e-15, -5, 76
17, -4.9e-15, 0, 212
18, 10, -5, 209.3205080757
19, 17.32050807569, -5, 202
20, 20, -5, 192
** ... 797 like lines cut


** Volume elements
*Element, TYPE=C3D10, ELSET=Evolumes
421, 394, 395, 224, 296, 425, 618, 619, 621, 620, 622
422, 381, 299, 385, 227, 624, 623, 437, 626, 625, 627
423, 230, 393, 394, 302, 629, 428, 628, 631, 630, 632
424, 386, 229, 301, 393, 635, 633, 634, 431, 636, 637
425, 396, 384, 231, 303, 419, 638, 639, 641, 640, 642
426, 300, 381, 382, 228, 644, 440, 643, 646, 645, 647
427, 384, 383, 234, 306, 416, 648, 649, 651, 650, 652
428, 224, 302, 394, 296, 653, 632, 619, 622, 330, 621
429, 394, 224, 230, 302, 619, 258, 628, 632, 653, 631
430, 386, 299, 301, 229, 654, 339, 634, 635, 655, 633
431, 381, 300, 299, 227, 644, 342, 624, 626, 656, 625
432, 300, 227, 381, 228, 656, 626, 644, 646, 270, 645
433, 384, 234, 231, 303, 649, 252, 638, 640, 657, 642
434, 233, 306, 383, 305, 659, 650, 658, 660, 321, 661
435, 229, 304, 301, 393, 662, 336, 633, 636, 663, 637
436, 393, 230, 304, 302, 629, 664, 663, 630, 631, 333
437, 382, 298, 300, 226, 665, 345, 643, 667, 666, 668
438, 384, 306, 234, 303, 651, 652, 649, 640, 324, 657
439, 234, 383, 233, 306, 648, 658, 249, 652, 650, 659
440, 229, 232, 304, 393, 264, 669, 662, 636, 670, 663
** ... 333 like lines cut

** Define element set Eall
*ELSET, ELSET=Eall
Evolumes



***********************************************************
** Element sets for materials and FEM element type (solid, shell, beam, fluid)
*ELSET,ELSET=FEMPart002_MaterialSolid
Evolumes

** Physical constants for SI(mm) unit system with Kelvins
*PHYSICAL CONSTANTS, ABSOLUTE ZERO=0, STEFAN BOLTZMANN=5.670374419e-11

***********************************************************
** Materials
** see information about units at file end
** FreeCAD material name: CalculiX-Steel
** Material (FEMPart (LongPendulum001))
*MATERIAL, NAME=FEMPart002_Material
*ELASTIC
210000,0.3
*DENSITY
7.9E-09
*EXPANSION, ZERO=0
1.2E-05

***********************************************************
** Sections
*SOLID SECTION, ELSET=FEMPart002_MaterialSolid, MATERIAL=FEMPart002_Material

***********************************************************
** At least one step is needed to run an CalculiX analysis of FreeCAD

***********************************************************
** MbDJoint FacePair CLOADs
*NSET,NSET=NSU1
8,100,101,111,112,113,133,135,136,381,382,387,388,405,406,407
440,441,462,463,464,465,466,467,470
*NSET,NSET=NSU2
91,92,93,102,103,104,383,384,389,390,403,404,408,411,416,419
444,445,446,447,448,449,471
*NSET,NSET=NSU3
94,95,96,105,106,107,394,396,422,425,428,450,451,452,453,454
455
*NSET,NSET=NSU4
97,98,99,108,109,110,385,386,393,431,434,437,456,457,458,459
460,461
*NSET,NSET=NSL1
7,77,78,88,89,90,132,134,392,399,400,402,435,436,438,439
442,443,469
*NSET,NSET=NSL2
68,69,70,79,80,81,391,397,398,401,409,410,412,413,414,415
468
*NSET,NSET=NSL3
71,72,73,82,83,84,395,417,418,420,421,423,424
*NSET,NSET=NSL4
74,75,76,85,86,87,426,427,429,430,432,433
*NSET,NSET=NS1
*NSET,NSET=NS2
*NSET,NSET=NS3
*NSET,NSET=NS4

***********************************************************
** Automatic 3-2-1 constraints
** nodeXYZ 157: x=-19.7989898732, y=-5, z=28.2010101268
** nodeYZ 154: x=19.7989898732, y=-5, z=28.2010101268
** nodeZ 177: x=19.7989898732, y=5, z=28.2010101268
*NSET,NSET=MbDFEM321Constraints
157,154,177
*STEP, INC=2000
*STATIC
1.0,1.0,1e-05,1.0
*BOUNDARY
157,1,1,0
157,2,2,0
157,3,3,0
154,2,2,0
154,3,3,0
177,3,3,0
** reaction forces for automatic 3-2-1 constraint nodes
*NODE PRINT,NSET=MbDFEM321Constraints
RF

***********************************************************
** MbDJoint FacePair CLOADs
*CLOAD
** MbDFEM transverse_force
8,1,-0.0005239720706523
8,3,1.368336801843E-05
100,1,-0.01763814979114
100,3,0.0004606148080676
101,1,-0.01048590594596
101,3,0.0002738361796394
111,1,-0.01951620632186
111,3,0.0005096596715415
112,1,-0.01455808250057
112,3,0.0003801798066259
113,1,-0.005699132229909
113,3,0.0001488310695462
133,1,-0.0005239720706523
133,3,1.368336801843E-05
135,1,-0.0005239720706523
135,3,1.368336801843E-05
136,1,-0.0005239720706523
136,3,1.368336801843E-05
381,1,-0.01956986513923
381,3,0.0005110609549049
** ... 128 like lines cut
** MbDFEM axial_force
** MbDFEM bending_torque
8,1,-3.674499779792E-15
8,3,1.228219797491E-15
68,1,3.457938660493E-15
68,3,-1.15583316801E-15
69,1,1.147952275752E-14
69,3,-3.837087484418E-15
70,1,1.642517800218E-14
70,3,-5.490197308089E-15
71,1,1.212462712818E-14
71,3,-4.052716823642E-15
72,1,9.264910752323E-15
72,3,-3.096842424804E-15
73,1,3.922669022433E-15
73,3,-1.311171599153E-15
80,1,7.732199000932E-15
80,3,-2.584525911068E-15
81,1,1.444453600899E-14
81,3,-4.828157886792E-15
82,1,1.72864712584E-14
82,3,-5.77808885582E-15
** ... 116 like lines cut
** MbDFEM axial_torque
7,1,-7.123700192798E-14
7,3,-1.7809250482E-29
8,1,-8.57037779583E-14
8,3,-2.142594448957E-29
68,1,-5.844051788643E-14
68,3,3.374064873331E-14
69,1,-3.374064873331E-14
69,3,5.844051788643E-14
70,3,6.748129746662E-14
71,1,5.356974307418E-14
71,3,9.278551675289E-14
72,1,9.278551675289E-14
72,3,5.356974307418E-14
73,1,1.071394861484E-13
73,3,-6.054125638384E-28
74,1,8.340633046662E-14
74,3,-4.815466734702E-14
75,1,4.815466734702E-14
75,3,-8.340633046662E-14
76,3,-9.630933469404E-14
** ... 264 like lines cut

***********************************************************
** MbDPart D'Alembert element loads
*DLOAD
421,GRAV,724.0625338974,-0.7674864585849,5.735402511948E-13,-0.6410651572881
422,GRAV,724.7339873245,-0.1734646814272,6.261024536613E-13,0.984840090724
423,GRAV,717.9515569456,-0.98622132892,5.677271368457E-13,-0.1654312255388
424,GRAV,717.9517175049,-0.7801793737536,5.879338615168E-13,0.6255558686237
425,GRAV,718.6140376224,-0.1537163803045,6.174110931468E-13,-0.988115010728
426,GRAV,712.6339859712,0.3345574248025,6.710678743409E-13,0.9423753655044
427,GRAV,712.1221186538,0.3494407748225,6.578696209821E-13,-0.9369584541971
428,GRAV,798.4551241298,-0.8479187028244,5.101559043355E-13,-0.5301262806168
429,GRAV,800.4799714043,-0.9177954507944,5.049892597495E-13,-0.3970535360642
430,GRAV,800.4802132445,-0.607447723735,5.354253917767E-13,0.7943596559047
431,GRAV,796.2306275597,-0.04143756235058,5.786146400992E-13,0.9991410953546
432,GRAV,794.3643053788,0.1055002587417,5.899319340553E-13,0.9944192754595
433,GRAV,790.2606229868,-0.02033211580521,5.687791797373E-13,-0.9997932811671
434,GRAV,795.6992215864,0.5965285733664,6.08376423455E-13,-0.8025918397027
435,GRAV,789.8040683623,-0.8567079554783,5.239889894655E-13,0.5158017826842
436,GRAV,789.8039571075,-0.9994785707242,5.099873261674E-13,-0.03228911059687
437,GRAV,795.3053543198,0.5833493598796,6.203705099746E-13,0.8122213518051
438,GRAV,791.217963321,0.1245438023156,5.780050462338E-13,-0.9922141106156
439,GRAV,787.2844770637,0.4745827861261,6.056012493768E-13,-0.8802108719578
440,GRAV,790.9936289772,-0.9223480864689,5.176386240294E-13,0.3863599453712
** ... 333 like lines cut

***********************************************************
** MbDAssembly gravity
*DLOAD
Eall,GRAV,9810,0.9999939179203,-1.235990476633E-17,-0.003487710207621

***********************************************************
** Outputs --> frd file
*NODE FILE
U
*EL FILE
S, E
*OUTPUT, FREQUENCY=1
***********************************************************
*END STEP

***********************************************************
** CalculiX Input file
**   written by    --> FreeCAD 26.3.0
**   written on    --> Wed Sep 23 14:42:45 2026
**   file name     --> RealisticPendulum.FCStd
**   analysis name --> FEMPart002
**
**
***********************************************************
**  About units:
**  See ccx manual, ccx does not know about any unit.
**  Golden rule: The user must make sure that the numbers they provide have consistent units.
**  The user is the FreeCAD calculix writer module ;-)
**
**  The unit system which is used at Guido Dhondt's company: mm, N, s, K
**  Since Length and Mass are connected by Force, if Length is mm the Mass is in t to get N
**  The following units are used to write to inp file:
**
**  Length: mm (this includes the mesh geometry)
**  Mass: t
**  TimeSpan: s
**  Temperature: K
**
**  This leads to:
**  Force: N
**  Pressure: N/mm^2 == MPa (Young's Modulus has unit Pressure)
**  Density: t/mm^3
**  Gravity: mm/s^2
**  Thermal conductivity: t*mm/K/s^3 == as W/m/K == kW/mm/K
**  Specific Heat: mm^2/s^2/K = J/kg/K == kJ/t/K
**
