** written by FreeCAD inp file writer for CalculiX,Abaqus meshes
** highest dimension mesh elements only.

** Nodes
*Node, NSET=Nall
1, -5e-15, 5, 212
2, -5e-15, -5, 212
3, -5, -3, 172.635083269
4, -5, 3, 172.635083269
5, 5, 3, 172.635083269
6, 5, -3, 172.635083269
7, -2e-15, -5, 200
8, -2e-15, 5, 200
9, -5, -3, 75.54995462791
10, -5, 3, 75.54995462791
11, 5, 3, 75.54995462791
12, -6.86e-15, 3, 76
13, 5, -3, 75.54995462791
14, -6.86e-15, -3, 76
15, -7e-15, 5, 76
16, -7e-15, -5, 76
17, -4.9e-15, 0, 212
18, 10, -5, 209.3205080757
19, 17.32050807569, -5, 202
20, 20, -5, 192
** ... 797 like lines cut


** Volume elements
*Element, TYPE=C3D10, ELSET=Evolumes
421, 394, 395, 224, 296, 425, 618, 619, 621, 620, 622
422, 381, 299, 385, 227, 624, 623, 437, 626, 625, 627
423, 230, 393, 394, 302, 629, 428, 628, 631, 630, 632
424, 386, 229, 301, 393, 635, 633, 634, 431, 636, 637
425, 396, 384, 231, 303, 419, 638, 639, 641, 640, 642
426, 300, 381, 382, 228, 644, 440, 643, 646, 645, 647
427, 384, 383, 234, 306, 416, 648, 649, 651, 650, 652
428, 224, 302, 394, 296, 653, 632, 619, 622, 330, 621
429, 394, 224, 230, 302, 619, 258, 628, 632, 653, 631
430, 386, 299, 301, 229, 654, 339, 634, 635, 655, 633
431, 381, 300, 299, 227, 644, 342, 624, 626, 656, 625
432, 300, 227, 381, 228, 656, 626, 644, 646, 270, 645
433, 384, 234, 231, 303, 649, 252, 638, 640, 657, 642
434, 233, 306, 383, 305, 659, 650, 658, 660, 321, 661
435, 229, 304, 301, 393, 662, 336, 633, 636, 663, 637
436, 393, 230, 304, 302, 629, 664, 663, 630, 631, 333
437, 382, 298, 300, 226, 665, 345, 643, 667, 666, 668
438, 384, 306, 234, 303, 651, 652, 649, 640, 324, 657
439, 234, 383, 233, 306, 648, 658, 249, 652, 650, 659
440, 229, 232, 304, 393, 264, 669, 662, 636, 670, 663
** ... 333 like lines cut

** Define element set Eall
*ELSET, ELSET=Eall
Evolumes



***********************************************************
** Element sets for materials and FEM element type (solid, shell, beam, fluid)
*ELSET,ELSET=FEMPart002_MaterialSolid
Evolumes

** Physical constants for SI(mm) unit system with Kelvins
*PHYSICAL CONSTANTS, ABSOLUTE ZERO=0, STEFAN BOLTZMANN=5.670374419e-11

***********************************************************
** Materials
** see information about units at file end
** FreeCAD material name: CalculiX-Steel
** Material (FEMPart (LongPendulum001))
*MATERIAL, NAME=FEMPart002_Material
*ELASTIC
210000,0.3
*DENSITY
7.9E-09
*EXPANSION, ZERO=0
1.2E-05

***********************************************************
** Sections
*SOLID SECTION, ELSET=FEMPart002_MaterialSolid, MATERIAL=FEMPart002_Material

***********************************************************
** At least one step is needed to run an CalculiX analysis of FreeCAD

***********************************************************
** MbDJoint FacePair CLOADs
*NSET,NSET=NSU1
8,100,101,111,112,113,133,135,136,381,382,387,388,405,406,407
440,441,462,463,464,465,466,467,470
*NSET,NSET=NSU2
91,92,93,102,103,104,383,384,389,390,403,404,408,411,416,444
445,446,447,448,449,471
*NSET,NSET=NSU3
94,95,105,106,107,394,396,419,422,425,450,451,452,453,454,455
*NSET,NSET=NSU4
96,97,98,99,108,109,110,385,386,393,428,431,434,437,456,457
458,459,460,461
*NSET,NSET=NSL1
7,77,78,88,89,90,132,134,392,399,400,402,435,436,438,439
442,443,469
*NSET,NSET=NSL2
68,69,70,79,80,81,391,397,398,401,409,410,412,413,414,415
468
*NSET,NSET=NSL3
71,72,82,83,84,395,417,418,420,421,423,424
*NSET,NSET=NSL4
73,74,75,76,85,86,87,426,427,429,430,432,433
*NSET,NSET=NS1
*NSET,NSET=NS2
*NSET,NSET=NS3
*NSET,NSET=NS4

***********************************************************
** Automatic 3-2-1 constraints
** nodeXYZ 157: x=-19.7989898732, y=-5, z=28.2010101268
** nodeYZ 154: x=19.7989898732, y=-5, z=28.2010101268
** nodeZ 177: x=19.7989898732, y=5, z=28.2010101268
*NSET,NSET=MbDFEM321Constraints
157,154,177
*STEP, INC=2000
*STATIC
1.0,1.0,1e-05,1.0
*BOUNDARY
157,1,1,0
157,2,2,0
157,3,3,0
154,2,2,0
154,3,3,0
177,3,3,0
** reaction forces for automatic 3-2-1 constraint nodes
*NODE PRINT,NSET=MbDFEM321Constraints
RF

***********************************************************
** MbDJoint FacePair CLOADs
*CLOAD
** MbDFEM transverse_force
8,1,-5.164253389242E-18
8,3,1.99150004734E-49
100,1,-0.01788949850666
100,3,6.898758530538E-34
101,1,-0.01032850677848
101,3,3.98300009468E-34
111,1,-0.01995314288868
111,3,7.694565315127E-34
112,1,-0.0146067143652
112,3,5.63281275283E-34
113,1,-0.005346428523485
113,3,2.061752562297E-34
133,1,-5.060968321458E-18
133,3,1.951670046393E-49
135,1,-5.060968321458E-18
135,3,1.951670046393E-49
136,1,-5.060968321458E-18
136,3,1.951670046393E-49
381,1,-0.02001451151822
381,3,7.718231006837E-34
** ... 134 like lines cut
** MbDFEM axial_force
** MbDFEM bending_torque
** MbDFEM axial_torque

***********************************************************
** MbDPart D'Alembert element loads
*DLOAD
421,GRAV,724.050134054,-0.7719397877687,-3.935980889261E-16,-0.6356956536423
422,GRAV,724.7211256785,-0.1665918574106,-9.309774012071E-17,0.9860259393365
423,GRAV,717.9394105447,-0.9873512893311,-2.680008444121E-16,-0.1585478837963
424,GRAV,717.9394105447,-0.7757973571219,-1.133813770129E-16,0.6309821397494
425,GRAV,718.6013110483,-0.1606059833694,-5.367671354707E-16,-0.9870186006889
426,GRAV,712.6209847618,0.3411217674292,-1.606855199377E-16,0.940019116713
427,GRAV,712.1091537451,0.3428958348862,-5.804593786478E-16,-0.939373432889
428,GRAV,798.4414478565,-0.8515960953734,-3.298231255603E-16,-0.5241985218835
429,GRAV,800.4663053329,-0.9205428155909,-2.922413387551E-16,-0.3906416832137
430,GRAV,800.4663053329,-0.6018926219661,-5.934789777576E-17,0.7985770292356
431,GRAV,796.2163939796,-0.03446813255944,-7.393165173944E-17,0.9994057973806
432,GRAV,794.3500020627,0.1124331886304,-9.088368096218E-17,0.9936592867248
433,GRAV,790.2465213629,-0.02730636190489,-5.229782607388E-16,-0.9996271117769
434,GRAV,795.6845854273,0.5909151628314,-5.40843011771E-16,-0.8067337047229
435,GRAV,789.7905320844,-0.8530894949643,-9.9565268692E-17,0.5217646151107
436,GRAV,789.7905320844,-0.999679481896,-2.067042165184E-16,-0.02531666399952
437,GRAV,795.2907021566,0.5890000838384,-1.804690451787E-16,0.808132972498
438,GRAV,791.2037426546,0.1176189086173,-5.359090357227E-16,-0.9930588060813
439,GRAV,787.2700786369,0.4684308057905,-5.487086800909E-16,-0.8835001868627
440,GRAV,790.9801201187,-0.9196308173065,-1.211112938997E-16,0.3927838589608
** ... 333 like lines cut

***********************************************************
** MbDAssembly gravity
*DLOAD
Eall,GRAV,9810,1,0,-6.162975822039E-33

***********************************************************
** Outputs --> frd file
*NODE FILE
U
*EL FILE
S, E
*OUTPUT, FREQUENCY=1
***********************************************************
*END STEP

***********************************************************
** CalculiX Input file
**   written by    --> FreeCAD 26.3.0
**   written on    --> Wed Sep 23 14:42:37 2026
**   file name     --> RealisticPendulum.FCStd
**   analysis name --> FEMPart002
**
**
***********************************************************
**  About units:
**  See ccx manual, ccx does not know about any unit.
**  Golden rule: The user must make sure that the numbers they provide have consistent units.
**  The user is the FreeCAD calculix writer module ;-)
**
**  The unit system which is used at Guido Dhondt's company: mm, N, s, K
**  Since Length and Mass are connected by Force, if Length is mm the Mass is in t to get N
**  The following units are used to write to inp file:
**
**  Length: mm (this includes the mesh geometry)
**  Mass: t
**  TimeSpan: s
**  Temperature: K
**
**  This leads to:
**  Force: N
**  Pressure: N/mm^2 == MPa (Young's Modulus has unit Pressure)
**  Density: t/mm^3
**  Gravity: mm/s^2
**  Thermal conductivity: t*mm/K/s^3 == as W/m/K == kW/mm/K
**  Specific Heat: mm^2/s^2/K = J/kg/K == kJ/t/K
**
